/batch
/config,noeldb,1     ! force off writing results to database
*get,_wallstrt,active,,time,wall
! ANSYS input file written by Workbench version 2021 R2
! File used for geometry attach: C:\Users\dmkim\PycharmProjects\DesignOptimization2021Fall\Project\Project 2 ANSYS\brake.agdb
/title,Project2--Static Structural (C5)
! ****** Begin Custom Load Command Snippet ******
/COM, ACT Extensions:
/COM,     LSDYNA, 2021.1
/COM,     5f463412-bd3e-484b-87e7-cbc0a665e474, wbex
/COM,
! ****** End   Custom Load Command Snippet ******
*DIM,_wb_ProjectScratch_dir,string,248
_wb_ProjectScratch_dir(1) = 'C:\Users\dmkim\PycharmProjects\DesignOptimization2021Fall\Project\Project 2 ANSYS\_ProjectScratch\Scr7B26\'
*DIM,_wb_SolverFiles_dir,string,248
_wb_SolverFiles_dir(1) = 'C:\Users\dmkim\PycharmProjects\DesignOptimization2021Fall\Project\Project 2 ANSYS\Project2_files\dp0\SYS\MECH\'
*DIM,_wb_userfiles_dir,string,248
_wb_userfiles_dir(1) = 'C:\Users\dmkim\PycharmProjects\DesignOptimization2021Fall\Project\Project 2 ANSYS\Project2_files\user_files\'
/com,--- Data in consistent MKS units. See Solving Units in the help system for more information.
/units,MKS
/nopr
/wb,file,start              !  signify a WB generated input file
/prep7
! Turn off shape checking because checks already performed inside WB mesher.
! See help system for more information.
SHPP,OFF,,NOWARN
/nolist
etcon,set             ! allow ANSYS to choose best KEYOP's for 180x elements, resets any applicable keyopt to MAPDL defaults
/com,*********** Nodes for the whole assembly ***********
nblock,3,,15099
(1i9,3e20.9e3)
        1    -8.572527594E-18     4.000000000E-02     7.000000000E-02
        2    -1.740829210E-02     4.000000000E-02     6.780082128E-02
        3    -3.372275719E-02     4.000000000E-02     6.134146760E-02
        4    -4.791829742E-02     4.000000000E-02     5.102780392E-02
        5    -5.910295479E-02     4.000000000E-02     3.750787565E-02
        6    -6.657395614E-02     4.000000000E-02     2.163118961E-02
        7    -6.986187099E-02     4.000000000E-02     4.395336367E-03
        8    -6.876010755E-02     4.000000000E-02    -1.311669202E-02
        9    -6.333789367E-02     4.000000000E-02    -2.980455041E-02
       10    -5.393592699E-02     4.000000000E-02    -4.461967928E-02
       11    -4.114496766E-02     4.000000000E-02    -5.663118961E-02
       12    -2.576871869E-02     4.000000000E-02    -6.508435401E-02
       13    -8.773326350E-03     4.000000000E-02    -6.944802909E-02
       14     8.773326350E-03     4.000000000E-02    -6.944802909E-02
       15     2.576871869E-02     4.000000000E-02    -6.508435401E-02
       16     4.114496766E-02     4.000000000E-02    -5.663118961E-02
       17     5.393592699E-02     4.000000000E-02    -4.461967928E-02
       18     6.333789367E-02     4.000000000E-02    -2.980455041E-02
       19     6.876010755E-02     4.000000000E-02    -1.311669202E-02
       20     6.986187099E-02     4.000000000E-02     4.395336367E-03
! ... 13708 like lines cut
/com,*********** Nodes for all Remote Points ***********
nblock,3
(1i9,3e20.9e3)
    13728     0.000000000E+00    -2.749999985E-02     1.292034336E-20
    13729     0.000000000E+00    -2.749999985E-02     1.292034336E-20
-1
/wb,elem,start            !  set before creation of elements
/com,*********** Elements for Body 1 "Disk" ***********
et,1,187
eblock,19,solid,,3026
(19i9)
        1        1        1        1        0        0        0        0       10        0        1      213     1006      673      389     2598     4942     2595     2591
     3809     3806
        1        1        1        1        0        0        0        0       10        0        2      213      625     1006      980     2593     4786     2598     2597
     4785     5909
        1        1        1        1        0        0        0        0       10        0        3      213      625      673     1006     2593     4784     2595     2598
     4786     4942
        1        1        1        1        0        0        0        0       10        0        4      181      389     1006      908     2363     3809     2369     2368
     3808     5753
        1        1        1        1        0        0        0        0       10        0        5      181      389      673     1006     2363     3806     2366     2369
     3809     4942
        1        1        1        1        0        0        0        0       10        0        6      388      625     1006      673     3800     4786     3803     3802
     4784     4942
        1        1        1        1        0        0        0        0       10        0        7      180     1006      672      905     2362     4941     2357     2360
     5739     4938
        1        1        1        1        0        0        0        0       10        0        8      180      388      672     1006     2354     3801     2357     2362
     3803     4941
        1        1        1        1        0        0        0        0       10        0        9      212     1006      388      625     2590     3803     2585     2588
     4786     3800
        1        1        1        1        0        0        0        0       10        0       10      388      673     1006      561     3802     4942     3803     3799
     4527     4529
! ... 6033 like lines cut
!Material Id = {B868E602-BD50-44B7-BD19-EE7D4CD34BD0}
/com,*********** Elements for Body 2 "Pad1" ***********
et,2,186
keyo,2,2,1          ! set full integration on SOLID186
eblock,19,solid,,836
(19i9)
        2        2        2        2        0        0        0        0       20        0     3027     5918     6046     5975     5976     6649     6521     6592     6591
     7869     8148     8146     7868     9964     9963    10097    10098     7870     8440     8150     8154
        2        2        2        2        0        0        0        0       20        0     3028     5918     5976     5975     6046     6656     6714     6713     6784
     7868     8146     8148     7869    10172    10336    10338    10173     7871     8155     8151     8441
        2        2        2        2        0        0        0        0       20        0     3029     5916     6043     6046     5918     6651     6524     6521     6649
     7857     8424     7869     7855     9968     9962     9964    10158     7859     8426     8440     7870
        2        2        2        2        0        0        0        0       20        0     3030     5916     5918     6046     6043     6654     6656     6784     6781
     7855     7869     8424     7857    10163    10173    10478    10165     7860     7871     8441     8427
        2        2        2        2        0        0        0        0       20        0     3031     5916     6013     6042     6043     6651     6554     6525     6524
     7856     8302     8419     7857    10024     9969     9967     9968     7859     8303     8422     8426
        2        2        2        2        0        0        0        0       20        0     3032     5916     6043     6042     6013     6654     6781     6780     6751
     7857     8419     8302     7856    10165    10475    10416    10164     7860     8427     8423     8304
        2        2        2        2        0        0        0        0       20        0     3033     5950     6011     6012     5972     6617     6556     6555     6595
     8023     8293     8132     8022    10028    10025    10026    10102     8025     8295     8299     8134
        2        2        2        2        0        0        0        0       20        0     3034     5950     5972     6012     6011     6688     6710     6750     6749
     8022     8132     8293     8023    10262    10328    10411    10263     8026     8135     8300     8296
        2        2        2        2        0        0        0        0       20        0     3035     5917     5949     6011     5950     6650     6618     6556     6617
     7862     8019     8023     7863    10125    10029    10028    10124     7865     8020     8295     8025
        2        2        2        2        0        0        0        0       20        0     3036     5917     5950     6011     5949     6655     6688     6749     6687
     7863     8023     8019     7862    10169    10263    10261    10168     7866     8026     8296     8021
! ... 1653 like lines cut
!Material Id = {43EE242D-F1DC-4C62-8F93-10A835E86264}
/com,*********** Elements for Body 3 "Pad2" ***********
et,3,187
eblock,19,solid,,1257
(19i9)
        3        3        2        3        0        0        0        0       10        0     3863     7389     7847     7684     7838    11892    13430    11889    11891
    13722    13428
        3        3        2        3        0        0        0        0       10        0     3864     7389     7847     7679     7684    11892    13417    11888    11889
    13430    13414
        3        3        2        3        0        0        0        0       10        0     3865     7507     7679     7847     7684    12692    13417    12695    12693
    13414    13430
        3        3        2        3        0        0        0        0       10        0     3866     7389     7679     7847     7822    11888    13417    11892    11890
    13416    13701
        3        3        2        3        0        0        0        0       10        0     3867     7389     7414     7847     7838    11886    12065    11892    11891
    12064    13722
        3        3        2        3        0        0        0        0       10        0     3868     7389     7847     7414     7822    11892    12065    11886    11890
    13701    12062
        3        3        2        3        0        0        0        0       10        0     3869     7568     7847     7679     7822    13033    13417    13030    13032
    13701    13416
        3        3        2        3        0        0        0        0       10        0     3870     7507     7679     7568     7847    12692    13030    12689    12695
    13417    13033
        3        3        2        3        0        0        0        0       10        0     3871     7507     7684     7847     7845    12693    13430    12695    12694
    13429    13727
        3        3        2        3        0        0        0        0       10        0     3872     7684     7838     7847     7845    13428    13722    13430    13429
    13720    13727
! ... 2495 like lines cut
!Material Id = {5CBDAF85-57F7-4087-93E8-9968A594A070}
/wb,elem,end               !  done creating elements
/com,*********** Send User Defined Coordinate System(s) ***********
local,12,0,0.,-2.74999998509884e-002,1.29203433560791e-020,-180.,-90.,-180.
csys,0
toffst,273.15,  ! Temperature offset from absolute zero
/com,*********** Set Reference Temperature ***********
tref,22.
/wb,mat,start              !  starting to send materials
/com,*********** Send Materials ***********
Temperature = 'TEMP' ! Temperature
MP,DENS,1,7200,	! kg m^-3
MP,ALPX,1,1.1e-05,	! C^-1
MP,C,1,447,	! J kg^-1 C^-1
MP,KXX,1,52,	! W m^-1 C^-1
MP,RSVX,1,9.6e-08,	! kg m^3 A^-2 s^-3
MP,EX,1,110000000000,	! Pa
MP,NUXY,1,0.28,
MP,MURX,1,10000,
MP,UVID,1,09cb1913-d2e2-4f86-b290-498d90916f64
MP,UMID,1,f60bcced-8a07-4217-aedb-972d67ace671

Temperature = 'TEMP' ! Temperature
MP,DENS,2,7850,	! kg m^-3
MP,ALPX,2,1.2e-05,	! C^-1
MP,C,2,434,	! J kg^-1 C^-1
MP,KXX,2,60.5,	! W m^-1 C^-1
MP,RSVX,2,1.7e-07,	! kg m^3 A^-2 s^-3
MP,EX,2,200000000000,	! Pa
MP,NUXY,2,0.3,
MP,MURX,2,10000,
MP,UVID,2,520be79b-b00b-4b6f-9b43-6930e57a11d9
MP,UMID,2,59002a79-71c2-428e-906b-55d7dbee100e

Temperature = 'TEMP' ! Temperature
MP,DENS,3,7850,	! kg m^-3
MP,ALPX,3,1.2e-05,	! C^-1
MP,C,3,434,	! J kg^-1 C^-1
MP,KXX,3,60.5,	! W m^-1 C^-1
MP,RSVX,3,1.7e-07,	! kg m^3 A^-2 s^-3
MP,EX,3,200000000000,	! Pa
MP,NUXY,3,0.3,
MP,MURX,3,10000,
MP,UVID,3,520be79b-b00b-4b6f-9b43-6930e57a11d9
MP,UMID,3,59002a79-71c2-428e-906b-55d7dbee100e

/wb,mat,end                !  done sending materials
!************************* Model Summary ********************
!Disk,	Gray Cast Iron,	matid,	1
!Pad1,	Structural Steel,	matid,	2
!Pad2,	Structural Steel,	matid,	3
!************************* End Model Summary ********************
! get the diagonal of the bounding box. Needed later for other things
*get,_xmin,node,,mnloc,x
*get,_ymin,node,,mnloc,y
*get,_zmin,node,,mnloc,z
*get,_xmax,node,,mxloc,x
*get,_ymax,node,,mxloc,y
*get,_zmax,node,,mxloc,z
_ASMDIAG=(_xmax-_xmin)*(_xmax-_xmin)+(_ymax-_ymin)*(_ymax-_ymin)+(_zmax-_zmin)*(_zmax-_zmin)
_ASMDIAG=SQRT(_ASMDIAG)
/wb,contact,start          !  starting to send contact
/com,*********** Create Contact "Frictional - Disk To Pad1" ***********
/com,            Real Constant Set For Above Contact Is 5 & 4 
*set,tid,5
*set,cid,4
r,tid
r,cid
et,tid,170
et,cid,174
eblock,10,,,36
(15i9)
     8907        5        5        5        0      130      131      815      815     2017     2025      815     2018
     8908        5        5        5        0      196      254      815      815     2467     2909      815     2470
     8909        5        5        5        0      129      816      817      817     2012     5274      817     2013
     8910        5        5        5        0      129      130      816      816     2011     2019      816     2012
     8911        5        5        5        0      570      816      815      815     4561     5269      815     4560
     8912        5        5        5        0      249      814      573      573     2875     4575      573     2872
     8913        5        5        5        0      250      573      814      814     2879     4575      814     2881
     8914        5        5        5        0      254      663      815      815     2906     4921      815     2909
     8915        5        5        5        0      253      815      663      663     2902     4921      663     2900
     8916        5        5        5        0      254      612      664      664     2905     4742      664     2907
     8917        5        5        5        0      127      128      814      814     1999     2005      814     2000
     8918        5        5        5        0      126      196      131      131     1995     2023      131     1993
     8919        5        5        5        0      131      196      815      815     2023     2470      815     2025
     8920        5        5        5        0      158      597      661      661     2198     4676      661     2200
     8921        5        5        5        0      252      816      570      570     2896     4561      570     2893
     8922        5        5        5        0      250      814      817      817     2881     5264      817     2882
     8923        5        5        5        0      196      612      254      254     2469     2905      254     2467
     8924        5        5        5        0      249      662      814      814     2873     4915      814     2875
     8925        5        5        5        0      252      571      816      816     2894     4568      816     2896
     8926        5        5        5        0      253      570      815      815     2899     4560      815     2902
! ... 17 like lines cut
eblock,10,,,36
(15i9)
     8943        4        4        4        0      130      131      815      815     2017     2025      815     2018
     8944        4        4        4        0      196      254      815      815     2467     2909      815     2470
     8945        4        4        4        0      129      816      817      817     2012     5274      817     2013
     8946        4        4        4        0      129      130      816      816     2011     2019      816     2012
     8947        4        4        4        0      570      816      815      815     4561     5269      815     4560
     8948        4        4        4        0      249      814      573      573     2875     4575      573     2872
     8949        4        4        4        0      250      573      814      814     2879     4575      814     2881
     8950        4        4        4        0      254      663      815      815     2906     4921      815     2909
     8951        4        4        4        0      253      815      663      663     2902     4921      663     2900
     8952        4        4        4        0      254      612      664      664     2905     4742      664     2907
     8953        4        4        4        0      127      128      814      814     1999     2005      814     2000
     8954        4        4        4        0      126      196      131      131     1995     2023      131     1993
     8955        4        4        4        0      131      196      815      815     2023     2470      815     2025
     8956        4        4        4        0      158      597      661      661     2198     4676      661     2200
     8957        4        4        4        0      252      816      570      570     2896     4561      570     2893
     8958        4        4        4        0      250      814      817      817     2881     5264      817     2882
     8959        4        4        4        0      196      612      254      254     2469     2905      254     2467
     8960        4        4        4        0      249      662      814      814     2873     4915      814     2875
     8961        4        4        4        0      252      571      816      816     2894     4568      816     2896
     8962        4        4        4        0      253      570      815      815     2899     4560      815     2902
! ... 17 like lines cut
eblock,10,,,418
(15i9)
     8979        4        5        4        0     6327     6643     6328     6328     9506     9510     6328     9504
     8980        4        5        4        0     6344     6614     6652     6652     9560    10122     6652     9562
     8981        4        5        4        0     6591     6649     6521     6592    10098     9964     9963    10097
     8982        4        5        4        0     6524     6521     6649     6651     9962     9964    10158     9968
     8983        4        5        4        0     6554     6525     6524     6651     9969     9967     9968    10024
     8984        4        5        4        0     6555     6595     6617     6556    10026    10102    10028    10025
     8985        4        5        4        0     6556     6617     6650     6618    10028    10124    10125    10029
     8986        4        5        4        0     6549     6595     6555     6550    10017    10026    10018    10016
     8987        4        5        4        0     6330     6639     6638     6331     9516    10147     9520     9514
     8988        4        5        4        0     6637     6332     6331     6638     9523     9518     9520    10146
     8989        4        5        4        0     6636     6333     6332     6637     9526     9521     9523    10145
     8990        4        5        4        0     6635     6334     6333     6636     9530     9524     9526    10144
     8991        4        5        4        0     6634     6633     6334     6635    10142     9529     9530    10143
     8992        4        5        4        0     6633     6632     6335     6334    10141     9533     9527     9529
     8993        4        5        4        0     6641     6640     6639     6330    10149    10148     9516     9517
     8994        4        5        4        0     6631     6336     6335     6632     9536     9531     9533    10140
     8995        4        5        4        0     6630     6337     6336     6631     9539     9534     9536    10139
     8996        4        5        4        0     6629     6338     6337     6630     9542     9537     9539    10138
     8997        4        5        4        0     6628     6339     6338     6629     9545     9540     9542    10137
     8998        4        5        4        0     6340     6339     6628     6627     9543     9545    10136     9549
! ... 399 like lines cut
eblock,10,,,418
(15i9)
     9397        5        4        5        0     6327     6643     6328     6328     9506     9510     6328     9504
     9398        5        4        5        0     6344     6614     6652     6652     9560    10122     6652     9562
     9399        5        4        5        0     6591     6649     6521     6592    10098     9964     9963    10097
     9400        5        4        5        0     6524     6521     6649     6651     9962     9964    10158     9968
     9401        5        4        5        0     6554     6525     6524     6651     9969     9967     9968    10024
     9402        5        4        5        0     6555     6595     6617     6556    10026    10102    10028    10025
     9403        5        4        5        0     6556     6617     6650     6618    10028    10124    10125    10029
     9404        5        4        5        0     6549     6595     6555     6550    10017    10026    10018    10016
     9405        5        4        5        0     6330     6639     6638     6331     9516    10147     9520     9514
     9406        5        4        5        0     6637     6332     6331     6638     9523     9518     9520    10146
     9407        5        4        5        0     6636     6333     6332     6637     9526     9521     9523    10145
     9408        5        4        5        0     6635     6334     6333     6636     9530     9524     9526    10144
     9409        5        4        5        0     6634     6633     6334     6635    10142     9529     9530    10143
     9410        5        4        5        0     6633     6632     6335     6334    10141     9533     9527     9529
     9411        5        4        5        0     6641     6640     6639     6330    10149    10148     9516     9517
     9412        5        4        5        0     6631     6336     6335     6632     9536     9531     9533    10140
     9413        5        4        5        0     6630     6337     6336     6631     9539     9534     9536    10139
     9414        5        4        5        0     6629     6338     6337     6630     9542     9537     9539    10138
     9415        5        4        5        0     6628     6339     6338     6629     9545     9540     9542    10137
     9416        5        4        5        0     6340     6339     6628     6627     9543     9545    10136     9549
! ... 399 like lines cut
keyo,cid,8,2               ! auto create asymmetric contact (from Program Controlled setting)
keyo,cid,10,0              ! adjust contact stiffness each NR iteration (from Program Controlled setting)
keyo,cid,12,0              ! standard contact
mp,mu,cid,0.22      ! unitless
keyo,cid,18,1              ! small sliding turned on by application
keyo,cid,2,0               ! augmented Lagrange (from Program Controlled setting)
keyo,cid,4,0               ! on Gauss point (from Program Controlled setting)
keyo,cid,9,0               ! use real geometry with stepped effects
keyo,cid,7,0               ! No Prediction
rmod,tid,3,1.       ! FKN
rmod,tid,5,0.       ! ICONT
rmod,tid,6,0.       ! PINB
rmod,tid,10,0.      ! CNOF
rmod,tid,12,0.      ! FKT
rmod,tid,36,30      ! WB DSID
rmod,cid,3,1.       ! FKN
rmod,cid,5,0.       ! ICONT
rmod,cid,6,0.       ! PINB
rmod,cid,10,0.      ! CNOF
rmod,cid,12,0.      ! FKT
rmod,cid,36,30      ! WB DSID
/com,*********** Create Contact "Frictional - Disk To Pad2" ***********
/com,            Real Constant Set For Above Contact Is 7 & 6 
*set,tid,7
*set,cid,6
r,tid
r,cid
et,tid,170
et,cid,174
eblock,10,,,36
(15i9)
     9815        7        7        7        0      199      812      809      809     2495     5239      809     2494
     9816        7        7        7        0       31      810       32       32     1211     1220       32     1208
     9817        7        7        7        0       60      203      581      581     1427     2519      581     1428
     9818        7        7        7        0       28      809       29       29     1189     1195       29     1188
     9819        7        7        7        0      202      615      810      810     2513     4757      810     2515
     9820        7        7        7        0      199      809      536      536     2494     4424      536     2491
     9821        7        7        7        0       30      812      811      811     1204     5251      811     1203
     9822        7        7        7        0      203      810      615      615     2524     4757      615     2520
     9823        7        7        7        0      200      812      537      537     2502     4427      537     2499
     9824        7        7        7        0       31      811      810      810     1212     5244      810     1211
     9825        7        7        7        0       32      810       60       60     1220     1430       60     1217
     9826        7        7        7        0      201      811      538      538     2509     4430      538     2506
     9827        7        7        7        0      201      539      811      811     2507     4436      811     2509
     9828        7        7        7        0       60      810      203      203     1430     2524      203     1427
     9829        7        7        7        0      202      810      539      539     2515     4435      539     2512
     9830        7        7        7        0       29      809      812      812     1195     5239      812     1196
     9831        7        7        7        0       30      811       31       31     1203     1212       31     1202
     9832        7        7        7        0      538      811      812      812     4430     5251      812     4431
     9833        7        7        7        0       29      812       30       30     1196     1204       30     1193
     9834        7        7        7        0      614      809      813      813     4750     5240      813     4751
! ... 17 like lines cut
eblock,10,,,36
(15i9)
     9851        6        6        6        0      199      812      809      809     2495     5239      809     2494
     9852        6        6        6        0       31      810       32       32     1211     1220       32     1208
     9853        6        6        6        0       60      203      581      581     1427     2519      581     1428
     9854        6        6        6        0       28      809       29       29     1189     1195       29     1188
     9855        6        6        6        0      202      615      810      810     2513     4757      810     2515
     9856        6        6        6        0      199      809      536      536     2494     4424      536     2491
     9857        6        6        6        0       30      812      811      811     1204     5251      811     1203
     9858        6        6        6        0      203      810      615      615     2524     4757      615     2520
     9859        6        6        6        0      200      812      537      537     2502     4427      537     2499
     9860        6        6        6        0       31      811      810      810     1212     5244      810     1211
     9861        6        6        6        0       32      810       60       60     1220     1430       60     1217
     9862        6        6        6        0      201      811      538      538     2509     4430      538     2506
     9863        6        6        6        0      201      539      811      811     2507     4436      811     2509
     9864        6        6        6        0       60      810      203      203     1430     2524      203     1427
     9865        6        6        6        0      202      810      539      539     2515     4435      539     2512
     9866        6        6        6        0       29      809      812      812     1195     5239      812     1196
     9867        6        6        6        0       30      811       31       31     1203     1212       31     1202
     9868        6        6        6        0      538      811      812      812     4430     5251      812     4431
     9869        6        6        6        0       29      812       30       30     1196     1204       30     1193
     9870        6        6        6        0      614      809      813      813     4750     5240      813     4751
! ... 17 like lines cut
eblock,10,,,849
(15i9)
     9887        6        7        6        0     7499     7697     7747     7747    12645    13462     7747    12646
     9888        6        7        6        0     7542     7814     7725     7725    12902    13526     7725    12900
     9889        6        7        6        0     7454     7633     7483     7483    12329    12540     7483    12325
     9890        6        7        6        0     7496     7621     7556     7556    12628    12976     7556    12626
     9891        6        7        6        0     7471     7661     7727     7727    12460    13366     7727    12462
     9892        6        7        6        0     7522     7634     7710     7710    12775    13295     7710    12777
     9893        6        7        6        0     7485     7632     7689     7689    12553    13291     7689    12555
     9894        6        7        6        0     7499     7672     7697     7697    12644    13400     7697    12645
     9895        6        7        6        0     7473     7665     7560     7560    12476    12996     7560    12473
     9896        6        7        6        0     7465     7486     7478     7478    12414    12507     7478    12413
     9897        6        7        6        0     7473     7560     7610     7610    12473    12994     7610    12475
     9898        6        7        6        0     7520     7632     7659     7659    12765    13290     7659    12767
     9899        6        7        6        0     7502     7769     7590     7590    12664    13126     7590    12662
     9900        6        7        6        0     7594     7722     7666     7666    13147    13379     7666    13146
     9901        6        7        6        0     7536     7686     7798     7798    12859    13435     7798    12861
     9902        6        7        6        0     7461     7529     7657     7657    12382    12814     7657    12386
     9903        6        7        6        0     7548     7582     7585     7585    12930    13094     7585    12931
     9904        6        7        6        0     7470     7804     7513     7513    12454    12730     7513    12449
     9905        6        7        6        0     7450     7493     7553     7553    12296    12607     7553    12298
     9906        6        7        6        0     7570     7736     7760     7760    13040    13546     7760    13041
! ... 830 like lines cut
eblock,10,,,849
(15i9)
    10736        7        6        7        0     7499     7697     7747     7747    12645    13462     7747    12646
    10737        7        6        7        0     7542     7814     7725     7725    12902    13526     7725    12900
    10738        7        6        7        0     7454     7633     7483     7483    12329    12540     7483    12325
    10739        7        6        7        0     7496     7621     7556     7556    12628    12976     7556    12626
    10740        7        6        7        0     7471     7661     7727     7727    12460    13366     7727    12462
    10741        7        6        7        0     7522     7634     7710     7710    12775    13295     7710    12777
    10742        7        6        7        0     7485     7632     7689     7689    12553    13291     7689    12555
    10743        7        6        7        0     7499     7672     7697     7697    12644    13400     7697    12645
    10744        7        6        7        0     7473     7665     7560     7560    12476    12996     7560    12473
    10745        7        6        7        0     7465     7486     7478     7478    12414    12507     7478    12413
    10746        7        6        7        0     7473     7560     7610     7610    12473    12994     7610    12475
    10747        7        6        7        0     7520     7632     7659     7659    12765    13290     7659    12767
    10748        7        6        7        0     7502     7769     7590     7590    12664    13126     7590    12662
    10749        7        6        7        0     7594     7722     7666     7666    13147    13379     7666    13146
    10750        7        6        7        0     7536     7686     7798     7798    12859    13435     7798    12861
    10751        7        6        7        0     7461     7529     7657     7657    12382    12814     7657    12386
    10752        7        6        7        0     7548     7582     7585     7585    12930    13094     7585    12931
    10753        7        6        7        0     7470     7804     7513     7513    12454    12730     7513    12449
    10754        7        6        7        0     7450     7493     7553     7553    12296    12607     7553    12298
    10755        7        6        7        0     7570     7736     7760     7760    13040    13546     7760    13041
! ... 830 like lines cut
keyo,cid,8,2               ! auto create asymmetric contact (from Program Controlled setting)
keyo,cid,10,0              ! adjust contact stiffness each NR iteration (from Program Controlled setting)
keyo,cid,12,0              ! standard contact
mp,mu,cid,0.22      ! unitless
keyo,cid,18,1              ! small sliding turned on by application
keyo,cid,2,0               ! augmented Lagrange (from Program Controlled setting)
keyo,cid,4,0               ! on Gauss point (from Program Controlled setting)
keyo,cid,9,0               ! use real geometry with stepped effects
keyo,cid,7,0               ! No Prediction
rmod,tid,3,1.       ! FKN
rmod,tid,5,0.       ! ICONT
rmod,tid,6,0.       ! PINB
rmod,tid,10,0.      ! CNOF
rmod,tid,12,0.      ! FKT
rmod,tid,36,33      ! WB DSID
rmod,cid,3,1.       ! FKN
rmod,cid,5,0.       ! ICONT
rmod,cid,6,0.       ! PINB
rmod,cid,10,0.      ! CNOF
rmod,cid,12,0.      ! FKT
rmod,cid,36,33      ! WB DSID
nsel,all
esel,all
/wb,contact,end            !  done creating contacts
/golist
/wb,load,start             !  starting to send loads
/com,******* Constant Zero Displacement X *******
CMBLOCK,_DISPZEROUX,NODE,     5112
(8i10)
      6284      6285      6286      6287      6288      6289      6290      6291
      6292      6293      6294      6295      6296      6297      6298      6299
      6300      6301      6302      6303      6304      6305      6306      6307
      6308      6309      6310      6311      6312      6313      6314      6315
      6316      6317      6318      6319      6320      6321      6322      6323
      6324      6325      6326      6327      6328      6329      6330      6331
      6332      6333      6334      6335      6336      6337      6338      6339
      6340      6341      6342      6343      6344      6345      6346      6347
      6348      6349      6350      6351      6352      6353      6354      6355
      6356      6357      6358      6359      6360      6361      6362      6363
      6364      6365      6366      6367      6368      6369      6370      6371
      6372      6373      6374      6375      6376      6377      6378      6379
      6380      6381      6382      6383      6384      6385      6386      6387
      6388      6389      6390      6391      6392      6393      6394      6395
      6396      6397      6398      6399      6400      6401      6402      6403
      6404      6405      6406      6407      6408      6409      6410      6411
      6412      6413      6414      6415      6416      6417      6418      6419
      6420      6421      6422      6423      6424      6425      6426      6427
      6428      6429      6430      6431      6432      6433      6434      6435
      6436      6437      6438      6439      6440      6441      6442      6443
! ... 619 like lines cut

cmsel,s,_DISPZEROUX
d,all,ux,0
nsel,all
/com,******* Constant Zero Displacement Z *******
CMBLOCK,_DISPZEROUZ,NODE,     5112
(8i10)
      6284      6285      6286      6287      6288      6289      6290      6291
      6292      6293      6294      6295      6296      6297      6298      6299
      6300      6301      6302      6303      6304      6305      6306      6307
      6308      6309      6310      6311      6312      6313      6314      6315
      6316      6317      6318      6319      6320      6321      6322      6323
      6324      6325      6326      6327      6328      6329      6330      6331
      6332      6333      6334      6335      6336      6337      6338      6339
      6340      6341      6342      6343      6344      6345      6346      6347
      6348      6349      6350      6351      6352      6353      6354      6355
      6356      6357      6358      6359      6360      6361      6362      6363
      6364      6365      6366      6367      6368      6369      6370      6371
      6372      6373      6374      6375      6376      6377      6378      6379
      6380      6381      6382      6383      6384      6385      6386      6387
      6388      6389      6390      6391      6392      6393      6394      6395
      6396      6397      6398      6399      6400      6401      6402      6403
      6404      6405      6406      6407      6408      6409      6410      6411
      6412      6413      6414      6415      6416      6417      6418      6419
      6420      6421      6422      6423      6424      6425      6426      6427
      6428      6429      6430      6431      6432      6433      6434      6435
      6436      6437      6438      6439      6440      6441      6442      6443
! ... 619 like lines cut

cmsel,s,_DISPZEROUZ
d,all,uz,0
nsel,all
/com,*********** Create Remote Point "Internal Remote Point 2" ***********
! -------- Remote Point Used by "Revolute - Ground To Disk" --------
*set,tid,9
*set,cid,8
et,cid,174
et,tid,170
keyo,tid,2,1               ! Don't fix the pilot node
keyo,tid,4,111111
keyo,cid,12,5              ! Bonded Contact 
keyo,cid,4,2               ! Rigid CERIG style load
keyo,cid,2,2               ! MPC style contact
eblock,10,,,26
(15i9)
    11585        8        8        8        0      267      266      280      280     2997     2999      280     3004
    11586        8        8        8        0      279      280      266      266     3067     2999      266     2998
    11587        8        8        8        0      258      257      271      271     2926     2928      271     2933
    11588        8        8        8        0      259      258      272      272     2932     2934      272     2939
    11589        8        8        8        0      270      271      257      257     3020     2928      257     2927
    11590        8        8        8        0      271      272      258      258     3026     2934      258     2933
    11591        8        8        8        0      260      259      273      273     2938     2940      273     2948
    11592        8        8        8        0      272      273      259      259     3030     2940      259     2939
    11593        8        8        8        0      263      262      276      276     2964     2966      276     2975
    11594        8        8        8        0      275      276      262      262     3047     2966      262     2965
    11595        8        8        8        0      262      261      275      275     2956     2958      275     2965
    11596        8        8        8        0      274      275      261      261     3040     2958      261     2957
    11597        8        8        8        0      264      263      277      277     2974     2976      277     2984
    11598        8        8        8        0      276      277      263      263     3052     2976      263     2975
    11599        8        8        8        0      261      260      274      274     2947     2949      274     2957
    11600        8        8        8        0      273      274      260      260     3034     2949      260     2948
    11601        8        8        8        0      265      264      278      278     2983     2985      278     2991
    11602        8        8        8        0      277      278      264      264     3058     2985      264     2984
    11603        8        8        8        0      266      265      279      279     2990     2992      279     2998
    11604        8        8        8        0      278      279      265      265     3064     2992      265     2991
! ... 7 like lines cut
*set,_npilot,13729
_npilot48=_npilot
type,tid
mat ,cid
real,cid
tshape,pilo
en,11611,_npilot
tshape
csys,12
nrot,13729
csys,0
/com,*********** Create Joint "Revolute - Ground To Disk" ***********
/com,            Real Constant Set For Above Joint Is 10
! Joint Element Type Declaration and Definition using MPC184
*set,_jid,10
et,_jid,184
keyo,_jid,1,6           ! Revolute Joint
keyo,_jid,4,1           ! Z Axis is revolute axis
sectype,_jid, joint, revo, _wbjoint
secjoint,,12,12
mat,_jid
real,_jid
type,_jid
secnum,_jid
en,8904,,13729        ! body to ground joint
/com,*********** Define Pressure Using Surface Effect Elements "Pressure" ***********
et,11,154
eblock,10,,,35
(15i9)
    11612       11       11       11        0     7411     7820     7818     7818    12028    13684     7818    12027
    11613       11       11       11        0     7365     7409     7437     7437    11756    11986     7437    11757
    11614       11       11       11        0     7354     7431     7821     7821    11689    12200     7821    11701
    11615       11       11       11        0     7365     7366     7820     7820    11755    11779     7820    11763
    11616       11       11       11        0     7419     7430     7439     7439    12122    12182     7439    12123
    11617       11       11       11        0     7415     7817     7416     7416    12075    12090     7416    12066
    11618       11       11       11        0     7353     7821     7817     7817    11688    13679     7817    11687
    11619       11       11       11        0     7412     7818     7413     7413    12035    12053     7413    12031
    11620       11       11       11        0     7817     7821     7417     7417    13679    12106     7417    12105
    11621       11       11       11        0     7354     7434     7431     7431    11690    12189     7431    11689
    11622       11       11       11        0     7352     7817     7819     7819    11670    13678     7819    11671
    11623       11       11       11        0     7348     7349     7818     7818    11594    11627     7818    11608
    11624       11       11       11        0     7417     7821     7418     7418    12106    12118     7418    12094
    11625       11       11       11        0     7350     7819     7818     7818    11640    13683     7818    11639
    11626       11       11       11        0     7409     7820     7410     7410    11996    12010     7410    11985
    11627       11       11       11        0     7365     7820     7409     7409    11763    11996     7409    11756
    11628       11       11       11        0     7348     7818     7820     7820    11608    13684     7820    11609
    11629       11       11       11        0     7416     7817     7417     7417    12090    12105     7417    12080
    11630       11       11       11        0     7347     7348     7820     7820    11577    11609     7820    11592
    11631       11       11       11        0     7430     7821     7431     7431    12187    12200     7431    12181
! ... 16 like lines cut
esel,s,type,,11
keyop,11,7,0                ! Use deformed area for application of load
esel,all
/com,*********** Define Pressure Using Surface Effect Elements "Pressure 2" ***********
et,12,154
eblock,10,,,418
(15i9)
    11647       12       12       12        0     6978     6977     6662     6662    10902    10190     6662    10191
    11648       12       12       12        0     6961     6653     6691     6691    10161    10160     6691    10273
    11649       12       12       12        0     6784     6656     6714     6713    10173    10172    10336    10338
    11650       12       12       12        0     6656     6784     6781     6654    10173    10478    10165    10163
    11651       12       12       12        0     6781     6780     6751     6654    10475    10416    10164    10165
    11652       12       12       12        0     6688     6710     6750     6749    10262    10328    10411    10263
    11653       12       12       12        0     6655     6688     6749     6687    10169    10263    10261    10168
    11654       12       12       12        0     6750     6710     6756     6755    10328    10329    10424    10414
    11655       12       12       12        0     6667     6666     6975     6974    10200    10202    10899    10205
    11656       12       12       12        0     6974     6973     6668     6667    10898    10208    10203    10205
    11657       12       12       12        0     6973     6972     6669     6668    10897    10211    10206    10208
    11658       12       12       12        0     6972     6971     6670     6669    10896    10214    10209    10211
    11659       12       12       12        0     6971     6672     6671     6670    10219    10215    10212    10214
    11660       12       12       12        0     6970     6673     6672     6971    10222    10217    10219    10895
    11661       12       12       12        0     6666     6665     6664     6975    10198    10195    10197    10202
    11662       12       12       12        0     6970     6969     6674     6673    10894    10225    10220    10222
    11663       12       12       12        0     6969     6968     6675     6674    10893    10228    10223    10225
    11664       12       12       12        0     6968     6967     6676     6675    10892    10231    10226    10228
    11665       12       12       12        0     6967     6966     6677     6676    10891    10234    10229    10231
    11666       12       12       12        0     6677     6966     6965     6678    10234    10890    10237    10232
! ... 399 like lines cut
esel,s,type,,12
keyop,12,7,0                ! Use deformed area for application of load
esel,all
esel,all
/com,*********** Define Rotational Velocity ***********
cglo,0.,0.,0.
/gst,on,on
fini
*get,_numnode,node,0,count
*get,_numelem,elem,0,count
*get, _MAXELEMNUM, elem, 0, NUM, MAX
*get, _MAXNODENUM, node, 0, NUM, MAX
*get, _MAXELEMTYPE, etyp, 0, NUM, MAX
*get, _MAXREALCONST, real, 0, NUM, MAX
/go
/wb,load,end               !  done creating loads
/com,--- Number of total nodes = %_numnode%
/com,--- Number of contact elements = 3157
/com,--- Number of spring elements = 0
/com,--- Number of bearing elements = 0
/com,--- Number of solid elements = 5119
/com,--- Number of condensed parts = 0
/com,--- Number of total elements = %_numelem%
*get,_wallbsol,active,,time,wall
/com,****************************************************************************
/com,*************************    SOLUTION       ********************************
/com,****************************************************************************
/solu
antype,0                   ! static analysis
_thickRatio=0.5     ! Ratio of thick parts in the model
eqsl,sparse,,,,,1
cntr,print,1               ! print out contact info and also make no initial contact an error
dmpoption,emat,no             ! Don't combine emat file for DANSYS
dmpoption,esav,no             ! Don't combine esav file for DANSYS
nldiag,cont,iter           ! print out contact info each equilibrium iteration
rescontrol,define,last,last,,dele	   ! Program Controlled
/com,****************************************************
/com,******************* SOLVE FOR LS 1 OF 1 ****************
esel,s,type,,11
nsle
sf,all,pres,10495000.
esel,s,type,,12
nsle
sf,all,pres,10495000.
nsel,all
esel,all
cgom,0.,250.,0.
esel,all
/nopr
/gopr
autots,on                  ! Workbench Program Controlled automatic time stepping
nsub,5,20,1                ! due to presence of high frictional contact
time,1.
outres,erase
outres,all,none
outres,nsol,all,
outres,rsol,all
outres,eangl,all
outres,etmp,all
outres,veng,all
outres,strs,all,
outres,epel,all,
outres,eppl,all,
outres,cont,all,
/nopr
esel,s,type,,10
cm,_elmisc,elem
esel,all
/gopr
outres,misc,all,_elmisc
! *********** WB SOLVE COMMAND ***********
! check interactive state
*get,ANSINTER_,active,,int
*if,ANSINTER_,ne,0,then
/eof
*endif
solve
/com *************** Write FE CONNECTORS ********* 
CEWRITE,file,ce,,INTE
/com,****************************************************
/com,*************** FINISHED SOLVE FOR LS 1 *************
*get,_wallasol,active,,time,wall
/nopr
*get,_numnode,node,0,count
*get,_numelem,elem,0,count
*get, _MAXELEMNUM, elem, 0, NUM, MAX
*get, _MAXNODENUM, node, 0, NUM, MAX,,,INTERNAL
*get, _MAXELEMTYPE, etyp, 0, NUM, MAX
*get, _MAXREALCONST, real, 0, NUM, MAX
/gopr
/post1
xmlo,ENCODING,ISO-8859-1
xmlo,parm
/xml,parm,xml
fini
/gopr
*get,_walldone,active,,time,wall
_preptime=(_wallbsol-_wallstrt)*3600
_solvtime=(_wallasol-_wallbsol)*3600
_posttime=(_walldone-_wallasol)*3600
_totaltim=(_walldone-_wallstrt)*3600
*get,_dlbratio,active,0,solu,dlbr
*get,_combtime,active,0,solu,comb
*get,_ssmode,active,0,solu,ssmm
*get,_ndofs,active,0,solu,ndof
/com,--- Total number of nodes = %_numnode%
/com,--- Total number of elements = %_numelem%
/com,--- Element load balance ratio = %_dlbratio%
/com,--- Time to combine distributed files = %_combtime%
/com,--- Sparse memory mode = %_ssmode%
/com,--- Number of DOF = %_ndofs%
/wb,file,end               ! done with WB generated input
